161367
  Marvin  01010816323D          

 26 27  0  0  1  0            999 V2000
   -0.6616   -1.4100   -1.9667 O   0  0  0  0  0  0  0  0  0  0  0  0
   -2.5158   -1.7243   -0.9998 O   0  0  0  0  0  0  0  0  0  0  0  0
   -0.8283   -0.7074    0.2750 C   0  0  1  0  0  0  0  0  0  0  0  0
    0.7387   -0.6928    0.2545 C   0  0  2  0  0  0  0  0  0  0  0  0
   -1.2292    0.7849    0.4409 C   0  0  2  0  0  0  0  0  0  0  0  0
    1.1044    0.4869    1.1984 C   0  0  0  0  0  0  0  0  0  0  0  0
   -0.1573    1.3500    1.3980 C   0  0  0  0  0  0  0  0  0  0  0  0
    1.3437   -0.7291   -1.0968 C   0  0  0  0  0  0  0  0  0  0  0  0
   -2.6748    1.0661    0.9242 C   0  0  0  0  0  0  0  0  0  0  0  0
   -1.3650   -1.3166   -0.9402 C   0  0  0  0  0  0  0  0  0  0  0  0
    0.5435   -1.1144   -2.1146 C   0  0  0  0  0  0  0  0  0  0  0  0
    2.7562   -0.4404   -1.3170 C   0  0  0  0  0  0  0  0  0  0  0  0
   -1.1661   -1.2847    1.1447 H   0  0  0  0  0  0  0  0  0  0  0  0
    1.0869   -1.6225    0.7199 H   0  0  0  0  0  0  0  0  0  0  0  0
   -1.1104    1.2941   -0.5241 H   0  0  0  0  0  0  0  0  0  0  0  0
    1.4373    0.0986    2.1665 H   0  0  0  0  0  0  0  0  0  0  0  0
    1.9185    1.1133    0.8337 H   0  0  0  0  0  0  0  0  0  0  0  0
    0.0355    2.4059    1.1858 H   0  0  0  0  0  0  0  0  0  0  0  0
   -0.4804    1.2813    2.4414 H   0  0  0  0  0  0  0  0  0  0  0  0
   -3.4090    0.6505    0.2330 H   0  0  0  0  0  0  0  0  0  0  0  0
   -2.8460    2.1433    0.9863 H   0  0  0  0  0  0  0  0  0  0  0  0
   -2.8527    0.6364    1.9122 H   0  0  0  0  0  0  0  0  0  0  0  0
    0.8931   -1.1906   -3.0418 H   0  0  0  0  0  0  0  0  0  0  0  0
    3.3683   -1.0426   -0.6432 H   0  0  0  0  0  0  0  0  0  0  0  0
    3.1004   -0.6492   -2.3329 H   0  0  0  0  0  0  0  0  0  0  0  0
    2.9702    0.6133   -1.1375 H   0  0  0  0  0  0  0  0  0  0  0  0
  1 10  1  0  0  0  0
  1 11  1  0  0  0  0
  2 10  2  0  0  0  0
  3  4  1  0  0  0  0
  3  5  1  0  0  0  0
  3 10  1  0  0  0  0
  3 13  1  0  0  0  0
  4  6  1  0  0  0  0
  4  8  1  0  0  0  0
  4 14  1  0  0  0  0
  5  7  1  0  0  0  0
  5  9  1  0  0  0  0
  5 15  1  0  0  0  0
  6  7  1  0  0  0  0
  6 16  1  0  0  0  0
  6 17  1  0  0  0  0
  7 18  1  0  0  0  0
  7 19  1  0  0  0  0
  8 11  2  0  0  0  0
  8 12  1  0  0  0  0
  9 20  1  0  0  0  0
  9 21  1  0  0  0  0
  9 22  1  0  0  0  0
 11 23  1  0  0  0  0
 12 24  1  0  0  0  0
 12 25  1  0  0  0  0
 12 26  1  0  0  0  0
M  END

> <PUBCHEM_BONDANNOTATIONS>
3  13  5
4  14  5
5  9  5

> <StdInChI>
InChI=1S/C10H14O2/c1-6-3-4-8-7(2)5-12-10(11)9(6)8/h5-6,8-9H,3-4H2,1-2H3/t6-,8+,9+/m0/s1

> <StdInChIKey>
ZDKZHVNKFOXMND-NBEYISGCSA-N

> <AuxInfo>
1/0/N:9,12,7,6,11,5,8,4,3,10,2,1/it:im/rA:26cOOCCCCCCCCCCHHHHHHHHHHHHHH/rB:;;s3;s3;s4;s5s6;s4;s5;s1d2s3;s1d8;s8;s3;s4;s5;s6;s6;s7;s7;s9;s9;s9;s11;s12;s12;s12;/rC:-.6616,-1.41,-1.9667;-2.5158,-1.7243,-.9998;-.8283,-.7074,.275;.7387,-.6928,.2545;-1.2292,.7849,.4409;1.1044,.4869,1.1984;-.1573,1.35,1.398;1.3437,-.7291,-1.0968;-2.6748,1.0661,.9242;-1.365,-1.3166,-.9402;.5435,-1.1144,-2.1146;2.7562,-.4404,-1.317;-1.1661,-1.2847,1.1447;1.0869,-1.6225,.7199;-1.1104,1.2941,-.5241;1.4373,.0986,2.1665;1.9185,1.1133,.8337;.0355,2.4059,1.1858;-.4804,1.2813,2.4414;-3.409,.6505,.233;-2.846,2.1433,.9863;-2.8527,.6364,1.9122;.8931,-1.1906,-3.0418;3.3683,-1.0426,-.6432;3.1004,-.6492,-2.3329;2.9702,.6133,-1.1375;

> <Formula>
C10 H14 O2

> <Mw>
166.217

> <SMILES>
O1C([H])=C(C([H])([H])[H])[C@@]2([H])C([H])([H])C([H])([H])[C@]([H])(C([H])([H])[H])[C@@]2([H])C1=O

> <CSID>
141747

$$$$
