2519
  Marvin  12300703363D          

 24 25  0  0  0  0            999 V2000
    0.2334   -2.4028    0.0000 O   0  0  0  0  0  0  0  0  0  0  0  0
   -3.0649    0.6291    0.0000 O   0  0  0  0  0  0  0  0  0  0  0  0
   -0.9932    1.3676   -0.0000 N   0  0  0  0  0  0  0  0  0  0  0  0
    2.1442   -0.2040    0.0000 N   0  0  0  0  0  0  0  0  0  0  0  0
   -1.4882   -0.9478   -0.0000 N   0  0  0  0  0  0  0  0  0  0  0  0
    1.3894    1.8799   -0.0000 N   0  0  0  0  0  0  0  0  0  0  0  0
    0.7919   -0.2478    0.0000 C   0  0  0  0  0  0  0  0  0  0  0  0
    0.3203    1.0664   -0.0000 C   0  0  0  0  0  0  0  0  0  0  0  0
   -0.1786   -1.2491    0.0000 C   0  0  0  0  0  0  0  0  0  0  0  0
   -1.8687    0.3474    0.0000 C   0  0  0  0  0  0  0  0  0  0  0  0
    2.4783    1.1018    0.0000 C   0  0  0  0  0  0  0  0  0  0  0  0
   -1.3939    2.7265   -0.0000 C   0  0  0  0  0  0  0  0  0  0  0  0
    3.1166   -1.2519    0.0000 C   0  0  0  0  0  0  0  0  0  0  0  0
   -2.4309   -2.0179   -0.0000 C   0  0  0  0  0  0  0  0  0  0  0  0
    3.4289    1.4800    0.0000 H   0  0  0  0  0  0  0  0  0  0  0  0
   -1.9937    2.9374   -0.8880 H   0  0  0  0  0  0  0  0  0  0  0  0
   -1.9937    2.9374    0.8880 H   0  0  0  0  0  0  0  0  0  0  0  0
   -0.5919    3.4694   -0.0000 H   0  0  0  0  0  0  0  0  0  0  0  0
    3.7476   -1.1709    0.8873 H   0  0  0  0  0  0  0  0  0  0  0  0
    3.7476   -1.1709   -0.8873 H   0  0  0  0  0  0  0  0  0  0  0  0
    2.6876   -2.2518    0.0000 H   0  0  0  0  0  0  0  0  0  0  0  0
   -2.3008   -2.6451   -0.8860 H   0  0  0  0  0  0  0  0  0  0  0  0
   -2.3008   -2.6451    0.8860 H   0  0  0  0  0  0  0  0  0  0  0  0
   -3.4866   -1.7380   -0.0000 H   0  0  0  0  0  0  0  0  0  0  0  0
  1  9  2  0  0  0  0
  2 10  2  0  0  0  0
  3  8  1  0  0  0  0
  3 10  1  0  0  0  0
  3 12  1  0  0  0  0
  4  7  1  0  0  0  0
  4 11  1  0  0  0  0
  4 13  1  0  0  0  0
  5  9  1  0  0  0  0
  5 10  1  0  0  0  0
  5 14  1  0  0  0  0
  6  8  1  0  0  0  0
  6 11  2  0  0  0  0
  7  8  2  0  0  0  0
  7  9  1  0  0  0  0
 11 15  1  0  0  0  0
 12 16  1  0  0  0  0
 12 17  1  0  0  0  0
 12 18  1  0  0  0  0
 13 19  1  0  0  0  0
 13 20  1  0  0  0  0
 13 21  1  0  0  0  0
 14 22  1  0  0  0  0
 14 23  1  0  0  0  0
 14 24  1  0  0  0  0
M  END

> <PUBCHEM_BONDANNOTATIONS>
3  10  8
3  8  8
4  11  8
4  7  8
5  10  8
5  9  8
6  11  8
6  8  8
7  8  8
7  9  8

> <StdInChI>
InChI=1S/C8H10N4O2/c1-10-4-9-6-5(10)7(13)12(3)8(14)11(6)2/h4H,1-3H3

> <StdInChIKey>
RYYVLZVUVIJVGH-UHFFFAOYSA-N

> <AuxInfo>
1/0/N:13,12,14,11,7,8,9,10,6,4,3,5,1,2/rA:24nOONNNNCCCCCCCCHHHHHHHHHH/rB:;;;;;s4;s3s6d7;d1s5s7;d2s3s5;s4d6;s3;s4;s5;s11;s12;s12;s12;s13;s13;s13;s14;s14;s14;/rC:.2334,-2.4028,0;-3.0649,.6291,0;-.9932,1.3676,0;2.1442,-.204,0;-1.4882,-.9478,0;1.3894,1.8799,0;.7919,-.2478,0;.3203,1.0664,0;-.1786,-1.2491,0;-1.8687,.3474,0;2.4783,1.1018,0;-1.3939,2.7265,0;3.1166,-1.2519,0;-2.4309,-2.0179,0;3.4289,1.48,0;-1.9937,2.9374,-.888;-1.9937,2.9374,.888;-.5919,3.4694,0;3.7476,-1.1709,.8873;3.7476,-1.1709,-.8873;2.6876,-2.2518,0;-2.3008,-2.6451,-.886;-2.3008,-2.6451,.886;-3.4866,-1.738,0;

> <Formula>
C8 H10 N4 O2

> <Mw>
194.1906

> <SMILES>
O=C1C2=C(N=C([H])N2C([H])([H])[H])N(C([H])([H])[H])C(N1C([H])([H])[H])=O

> <CSID>
2424

$$$$
