
  1019              3D

 48 52  0  0  1  0  0  0  0  0999 V2000
    4.3691   -5.1724   -0.0410 C   0  0  0  0  0  0  0  0  0  0  0  0
    2.9158   -4.5847   -0.0777 C   0  0  0  0  0  0  0  0  0  0  0  0
    4.5978   -5.3089   -1.4733 C   0  0  0  0  0  0  0  0  0  0  0  0
    2.5603   -4.3433   -1.3902 C   0  0  0  0  0  0  0  0  0  0  0  0
    4.7538   -3.9640    0.8198 C   0  0  0  0  0  0  0  0  0  0  0  0
    3.3787   -5.0036   -2.2392 O   0  0  0  0  0  0  0  0  0  0  0  0
    5.6136   -4.2187   -1.8887 C   0  0  0  0  0  0  0  0  0  0  0  0
    4.2732   -3.5724    2.2669 C   0  0  0  0  0  0  0  0  0  0  0  0
    2.1737   -4.0370    0.9781 C   0  0  0  0  0  0  0  0  0  0  0  0
    2.7151   -4.0808    2.4059 C   0  0  0  0  0  0  0  0  0  0  0  0
    5.4312   -4.3849    3.1394 N   0  0  0  0  0  0  0  0  0  0  0  0
    6.1968   -3.3392   -1.0156 C   0  0  0  0  0  0  0  0  0  0  0  0
    5.5345   -6.3252    0.7102 C   0  0  0  0  0  0  0  0  0  0  0  0
    5.9919   -3.2994    0.4883 C   0  0  0  0  0  0  0  0  0  0  0  0
    5.9110   -4.2139   -3.3807 O   0  0  0  0  0  0  0  0  0  0  0  0
    1.3516   -3.7578   -1.7760 C   0  0  0  0  0  0  0  0  0  0  0  0
    6.7740   -3.2890   -4.0003 C   0  0  0  0  0  0  0  0  0  0  0  0
    6.0736   -5.6867    2.3729 C   0  0  0  0  0  0  0  0  0  0  0  0
    0.8185   -3.8845    0.6117 C   0  0  0  0  0  0  0  0  0  0  0  0
    7.9692   -3.1791   -3.7583 O   0  0  0  0  0  0  0  0  0  0  0  0
    0.4612   -3.7709   -0.7254 C   0  0  0  0  0  0  0  0  0  0  0  0
    0.9967   -3.6997   -3.0887 O   0  0  0  0  0  0  0  0  0  0  0  0
    4.8152   -4.8131    4.4101 C   0  0  0  0  0  0  0  0  0  0  0  0
    6.1779   -2.5846   -5.2564 C   0  0  0  0  0  0  0  0  0  0  0  0
    0.1674   -2.5765   -3.4978 C   0  0  0  0  0  0  0  0  0  0  0  0
    4.2985   -2.4179    2.3998 H   0  0  0  0  0  0  0  0  0  0  0  0
    4.5223   -4.7860    1.4776 H   0  0  0  0  0  0  0  0  0  0  0  0
    4.7388   -6.3880   -1.6854 H   0  0  0  0  0  0  0  0  0  0  0  0
    6.1723   -7.1154    0.2657 H   0  0  0  0  0  0  0  0  0  0  0  0
    6.4296   -5.8579    0.1325 H   0  0  0  0  0  0  0  0  0  0  0  0
    6.0574   -2.3446    1.0131 H   0  0  0  0  0  0  0  0  0  0  0  0
    6.8729   -3.7444    0.9488 H   0  0  0  0  0  0  0  0  0  0  0  0
    6.9133   -2.6241   -1.3175 H   0  0  0  0  0  0  0  0  0  0  0  0
    2.6702   -5.1636    2.5642 H   0  0  0  0  0  0  0  0  0  0  0  0
    2.0924   -3.7352    3.2780 H   0  0  0  0  0  0  0  0  0  0  0  0
    0.0850   -4.0357    1.3674 H   0  0  0  0  0  0  0  0  0  0  0  0
    7.1729   -5.5875    2.1915 H   0  0  0  0  0  0  0  0  0  0  0  0
    5.9606   -6.5857    2.9621 H   0  0  0  0  0  0  0  0  0  0  0  0
    5.5224   -5.3090    5.1046 H   0  0  0  0  0  0  0  0  0  0  0  0
    4.3531   -3.9761    4.9963 H   0  0  0  0  0  0  0  0  0  0  0  0
    3.9987   -5.5226    4.1984 H   0  0  0  0  0  0  0  0  0  0  0  0
   -0.6098   -3.8567   -0.9450 H   0  0  0  0  0  0  0  0  0  0  0  0
    5.1005   -2.4202   -5.2546 H   0  0  0  0  0  0  0  0  0  0  0  0
    6.6714   -1.6183   -5.3314 H   0  0  0  0  0  0  0  0  0  0  0  0
    6.4523   -3.1880   -6.1200 H   0  0  0  0  0  0  0  0  0  0  0  0
    0.5083   -1.6170   -3.1069 H   0  0  0  0  0  0  0  0  0  0  0  0
    0.2270   -2.5006   -4.5913 H   0  0  0  0  0  0  0  0  0  0  0  0
   -0.8871   -2.7260   -3.2321 H   0  0  0  0  0  0  0  0  0  0  0  0
  1  2  1  0  0  0  0
  1  3  1  0  0  0  0
  1  5  1  0  0  0  0
  1 13  1  0  0  0  0
  2  4  1  0  0  0  0
  2  9  2  0  0  0  0
  3  6  1  0  0  0  0
  3  7  1  0  0  0  0
  3 28  1  0  0  0  0
  4 16  2  0  0  0  0
  4  6  1  0  0  0  0
  5  8  1  0  0  0  0
  5 14  1  0  0  0  0
  5 27  1  0  0  0  0
  7 15  1  0  0  0  0
  7 12  2  0  0  0  0
  8 10  1  0  0  0  0
  8 26  1  0  0  0  0
  8 11  1  0  0  0  0
  9 19  1  0  0  0  0
  9 10  1  0  0  0  0
 11 18  1  0  0  0  0
 11 23  1  0  0  0  0
 12 14  1  0  0  0  0
 13 18  1  0  0  0  0
 15 17  1  0  0  0  0
 16 22  1  0  0  0  0
 16 21  1  0  0  0  0
 17 20  2  0  0  0  0
 17 24  1  0  0  0  0
 19 21  2  0  0  0  0
 22 25  1  0  0  0  0
 13 29  1  0  0  0  0
 13 30  1  0  0  0  0
 14 31  1  0  0  0  0
 14 32  1  0  0  0  0
 12 33  1  0  0  0  0
 10 34  1  0  0  0  0
 10 35  1  0  0  0  0
 19 36  1  0  0  0  0
 18 37  1  0  0  0  0
 18 38  1  0  0  0  0
 23 39  1  0  0  0  0
 23 40  1  0  0  0  0
 23 41  1  0  0  0  0
 21 42  1  0  0  0  0
 24 43  1  0  0  0  0
 24 44  1  0  0  0  0
 24 45  1  0  0  0  0
 25 46  1  0  0  0  0
 25 47  1  0  0  0  0
 25 48  1  0  0  0  0
M  END

> <energy>
417.56095931703391

> <StdInChI>
InChI=1S/C20H23NO4/c1-11(22)24-16-7-5-13-14-10-12-4-6-15(23-3)18-17(12)20(13,19(16)25-18)8-9-21(14)2/h4,6-7,13-14,19H,5,8-10H2,1-3H3/t13-,14+,19-,20-/m0/s1

> <StdInChIKey>
RRJQTGHQFYTZOW-ILWKUFEGSA-N

> <AuxInfo>
1/0/N:24,23,25,19,14,21,12,13,18,10,17,9,5,8,16,7,2,4,3,1,11,20,22,15,6/it:im/rA:48cCCCCCOCCCCNCCCOCCCCOCOCCCHHHHHHHHHHHHHHHHHHHHHHH/rB:s1;s1;s2;s1;s3s4;s3;s5;d2;s8s9;s8;d7;s1;s5s12;s7;d4;s15;s11s13;s9;d17;s16d19;s16;s11;s17;s22;s8;s5;s3;s13;s13;s14;s14;s12;s10;s10;s19;s18;s18;s23;s23;s23;s21;s24;s24;s24;s25;s25;s25;/rC:4.3691,-5.1724,-.041;2.9158,-4.5847,-.0777;4.5978,-5.3089,-1.4733;2.5603,-4.3433,-1.3902;4.7538,-3.964,.8198;3.3787,-5.0036,-2.2392;5.6136,-4.2187,-1.8887;4.2732,-3.5724,2.2669;2.1737,-4.037,.9781;2.7151,-4.0808,2.4059;5.4312,-4.3849,3.1394;6.1968,-3.3392,-1.0156;5.5345,-6.3252,.7102;5.9919,-3.2994,.4883;5.911,-4.2139,-3.3807;1.3516,-3.7578,-1.776;6.774,-3.289,-4.0003;6.0736,-5.6867,2.3729;.8185,-3.8845,.6117;7.9692,-3.1791,-3.7583;.4612,-3.7709,-.7254;.9967,-3.6997,-3.0887;4.8152,-4.8131,4.4101;6.1779,-2.5846,-5.2564;.1674,-2.5765,-3.4978;4.2985,-2.4179,2.3998;4.5223,-4.786,1.4776;4.7388,-6.388,-1.6854;6.1723,-7.1154,.2657;6.4296,-5.8579,.1325;6.0574,-2.3446,1.0131;6.8729,-3.7444,.9488;6.9133,-2.6241,-1.3175;2.6702,-5.1636,2.5642;2.0924,-3.7352,3.278;.085,-4.0357,1.3674;7.1729,-5.5875,2.1915;5.9606,-6.5857,2.9621;5.5224,-5.309,5.1046;4.3531,-3.9761,4.9963;3.9987,-5.5226,4.1984;-.6098,-3.8567,-.945;5.1005,-2.4202,-5.2546;6.6714,-1.6183,-5.3314;6.4523,-3.188,-6.12;.5083,-1.617,-3.1069;.227,-2.5006,-4.5913;-.8871,-2.726,-3.2321;

> <Formula>
C20 H23 N O4

> <Mw>
341.4009

> <SMILES>
[C@@]123C([H])([H])C([H])([H])[N@](C([H])([H])[H])[C@]4([H])C([H])([H])C5C([H])=C([H])C(OC([H])([H])[H])=C(O[C@@]1([H])C(=C([H])C([H])([H])[C@]24[H])OC(C([H])([H])[H])=O)C3=5

> <CSID>
9683173

$$$$
